1045147
  -OEChem-05302309423D

 54 58  0     0  0  0  0  0  0999 V2000
    1.6428   -2.2016    2.3907 Cl  0  0  0  0  0  0  0  0  0  0  0  0
    1.8403   -2.9507   -0.0521 F   0  0  0  0  0  0  0  0  0  0  0  0
    3.6576   -3.1544    1.1253 F   0  0  0  0  0  0  0  0  0  0  0  0
    6.9918    0.1842    0.0330 O   0  0  0  0  0  0  0  0  0  0  0  0
   -1.6544    2.3114   -0.6444 O   0  0  0  0  0  0  0  0  0  0  0  0
   -5.0507    3.2356    0.0871 O   0  0  0  0  0  0  0  0  0  0  0  0
   -3.0664    2.8280    1.1608 O   0  0  0  0  0  0  0  0  0  0  0  0
    2.0632   -0.0419    0.1375 N   0  0  0  0  0  0  0  0  0  0  0  0
   -4.0255   -1.1232   -0.1316 N   0  0  0  0  0  0  0  0  0  0  0  0
    0.7087   -0.1765    0.1845 N   0  0  0  0  0  0  0  0  0  0  0  0
   -1.9731    0.1181    0.0982 N   0  0  0  0  0  0  0  0  0  0  0  0
    3.7274    1.6104   -0.4028 N   0  0  0  0  0  0  0  0  0  0  0  0
   -5.3615   -0.9814   -0.0954 N   0  0  0  0  0  0  0  0  0  0  0  0
    2.4250    1.2389   -0.2769 C   0  0  0  0  0  0  0  0  0  0  0  0
    3.0344   -1.0010    0.4507 C   0  0  0  0  0  0  0  0  0  0  0  0
    0.2381    1.0096   -0.1964 C   0  0  0  0  0  0  0  0  0  0  0  0
   -3.3699    0.0344    0.0910 C   0  0  0  0  0  0  0  0  0  0  0  0
    1.2528    1.9264   -0.4947 C   0  0  0  0  0  0  0  0  0  0  0  0
    4.6383    0.7189   -0.1253 C   0  0  0  0  0  0  0  0  0  0  0  0
    4.3321   -0.6757    0.3404 C   0  0  0  0  0  0  0  0  0  0  0  0
   -4.2975    1.0034    0.2865 C   0  0  0  0  0  0  0  0  0  0  0  0
   -1.1794    1.2245   -0.2602 C   0  0  0  0  0  0  0  0  0  0  0  0
   -3.4720   -2.3811   -0.3751 C   0  0  0  0  0  0  0  0  0  0  0  0
    2.5864   -2.3567    0.9079 C   0  0  0  0  0  0  0  0  0  0  0  0
    6.0464    1.1100   -0.2667 C   0  0  0  0  0  0  0  0  0  0  0  0
   -5.5216    0.3197    0.1602 C   0  0  0  0  0  0  0  0  0  0  0  0
   -2.2410   -2.4756   -1.0103 C   0  0  0  0  0  0  0  0  0  0  0  0
   -4.1582   -3.5203    0.0242 C   0  0  0  0  0  0  0  0  0  0  0  0
   -4.0634    2.3901    0.5568 C   0  0  0  0  0  0  0  0  0  0  0  0
    6.6257    2.2896   -0.6631 C   0  0  0  0  0  0  0  0  0  0  0  0
   -1.6859   -3.7325   -1.2509 C   0  0  0  0  0  0  0  0  0  0  0  0
   -3.6031   -4.7771   -0.2164 C   0  0  0  0  0  0  0  0  0  0  0  0
    8.0235    2.0767   -0.6040 C   0  0  0  0  0  0  0  0  0  0  0  0
   -2.3670   -4.8831   -0.8540 C   0  0  0  0  0  0  0  0  0  0  0  0
    8.1947    0.7811   -0.1752 C   0  0  0  0  0  0  0  0  0  0  0  0
   -4.8798    4.6376    0.3240 C   0  0  0  0  0  0  0  0  0  0  0  0
   -6.0586    5.3842   -0.2631 C   0  0  0  0  0  0  0  0  0  0  0  0
    1.1617    2.9515   -0.8249 H   0  0  0  0  0  0  0  0  0  0  0  0
    5.1349   -1.3641    0.5687 H   0  0  0  0  0  0  0  0  0  0  0  0
   -1.4732   -0.7332    0.3340 H   0  0  0  0  0  0  0  0  0  0  0  0
   -6.5258    0.7108    0.2441 H   0  0  0  0  0  0  0  0  0  0  0  0
   -1.7167   -1.6347   -1.4498 H   0  0  0  0  0  0  0  0  0  0  0  0
   -5.1171   -3.4703    0.5334 H   0  0  0  0  0  0  0  0  0  0  0  0
    6.1147    3.1947   -0.9595 H   0  0  0  0  0  0  0  0  0  0  0  0
   -0.7356   -3.8170   -1.7701 H   0  0  0  0  0  0  0  0  0  0  0  0
   -4.1323   -5.6734    0.0938 H   0  0  0  0  0  0  0  0  0  0  0  0
    8.8081    2.7795   -0.8439 H   0  0  0  0  0  0  0  0  0  0  0  0
   -1.9373   -5.8619   -1.0462 H   0  0  0  0  0  0  0  0  0  0  0  0
    9.0612    0.1668    0.0216 H   0  0  0  0  0  0  0  0  0  0  0  0
   -3.9520    4.9753   -0.1505 H   0  0  0  0  0  0  0  0  0  0  0  0
   -4.8246    4.8195    1.4029 H   0  0  0  0  0  0  0  0  0  0  0  0
   -5.9603    6.4609   -0.0997 H   0  0  0  0  0  0  0  0  0  0  0  0
   -6.1371    5.1953   -1.3388 H   0  0  0  0  0  0  0  0  0  0  0  0
   -6.9954    5.0417    0.1888 H   0  0  0  0  0  0  0  0  0  0  0  0
  1 24  1  0  0  0  0
  2 24  1  0  0  0  0
  3 24  1  0  0  0  0
  4 25  1  0  0  0  0
  4 35  1  0  0  0  0
  5 22  2  0  0  0  0
  6 29  1  0  0  0  0
  6 36  1  0  0  0  0
  7 29  2  0  0  0  0
  8 10  1  0  0  0  0
  8 14  1  0  0  0  0
  8 15  1  0  0  0  0
  9 13  1  0  0  0  0
  9 17  1  0  0  0  0
  9 23  1  0  0  0  0
 10 16  2  0  0  0  0
 11 17  1  0  0  0  0
 11 22  1  0  0  0  0
 11 40  1  0  0  0  0
 12 14  1  0  0  0  0
 12 19  2  0  0  0  0
 13 26  2  0  0  0  0
 14 18  2  0  0  0  0
 15 20  2  0  0  0  0
 15 24  1  0  0  0  0
 16 18  1  0  0  0  0
 16 22  1  0  0  0  0
 17 21  2  0  0  0  0
 18 38  1  0  0  0  0
 19 20  1  0  0  0  0
 19 25  1  0  0  0  0
 20 39  1  0  0  0  0
 21 26  1  0  0  0  0
 21 29  1  0  0  0  0
 23 27  2  0  0  0  0
 23 28  1  0  0  0  0
 25 30  2  0  0  0  0
 26 41  1  0  0  0  0
 27 31  1  0  0  0  0
 27 42  1  0  0  0  0
 28 32  2  0  0  0  0
 28 43  1  0  0  0  0
 30 33  1  0  0  0  0
 30 44  1  0  0  0  0
 31 34  2  0  0  0  0
 31 45  1  0  0  0  0
 32 34  1  0  0  0  0
 32 46  1  0  0  0  0
 33 35  2  0  0  0  0
 33 47  1  0  0  0  0
 34 48  1  0  0  0  0
 35 49  1  0  0  0  0
 36 37  1  0  0  0  0
 36 50  1  0  0  0  0
 36 51  1  0  0  0  0
 37 52  1  0  0  0  0
 37 53  1  0  0  0  0
 37 54  1  0  0  0  0
M  END
> <PUBCHEM_COMPOUND_CID>
1045147

> <PUBCHEM_CONFORMER_RMSD>
1

> <PUBCHEM_CONFORMER_DIVERSEORDER>
1
12
5
10
6
22
16
19
17
25
24
4
9
11
21
3
15
13
2
23
8
18
14
20
7

> <PUBCHEM_MMFF94_PARTIAL_CHARGES>
48
1 -0.29
10 -0.71
11 -0.49
12 -0.58
13 -0.71
14 -0.03
15 -0.17
16 0.2
17 -0.09
18 -0.15
19 0.52
2 -0.34
20 -0.14
21 -0.09
22 0.72
23 -0.02
24 1.11
25 0.05
26 0.14
27 -0.15
28 -0.15
29 0.81
3 -0.34
30 -0.15
31 -0.15
32 -0.15
33 -0.15
34 -0.15
35 -0.01
36 0.28
38 0.15
39 0.15
4 -0.28
40 0.37
41 0.15
42 0.15
43 0.15
44 0.15
45 0.15
46 0.15
47 0.15
48 0.15
49 0.15
5 -0.57
6 -0.43
7 -0.57
8 0.6
9 0.59

> <PUBCHEM_EFFECTIVE_ROTOR_COUNT>
9

> <PUBCHEM_PHARMACOPHORE_FEATURES>
12
1 10 acceptor
1 11 donor
1 12 acceptor
1 13 acceptor
1 4 acceptor
1 5 acceptor
1 7 acceptor
5 4 25 30 33 35 rings
5 8 10 14 16 18 rings
5 9 13 17 21 26 rings
6 23 27 28 31 32 34 rings
6 8 12 14 15 19 20 rings

> <PUBCHEM_HEAVY_ATOM_COUNT>
37

> <PUBCHEM_ATOM_DEF_STEREO_COUNT>
0

> <PUBCHEM_ATOM_UDEF_STEREO_COUNT>
0

> <PUBCHEM_BOND_DEF_STEREO_COUNT>
0

> <PUBCHEM_BOND_UDEF_STEREO_COUNT>
0

> <PUBCHEM_ISOTOPIC_ATOM_COUNT>
0

> <PUBCHEM_COMPONENT_COUNT>
1

> <PUBCHEM_CACTVS_TAUTO_COUNT>
5

> <PUBCHEM_CONFORMER_ID>
000FF29B00000001

> <PUBCHEM_MMFF94_ENERGY>
91.2972

> <PUBCHEM_FEATURE_SELFOVERLAP>
61.069

> <PUBCHEM_SHAPE_FINGERPRINT>
10050765 1 18411420588506325726
10411042 1 17908142428241587415
10675989 125 17693665818511531753
10906281 52 17677068884048455520
10939801 23 18409169896392756657
10940486 97 18336270132130274325
11135926 11 18334004017401301974
11513181 2 18060136505682579743
12107183 9 17903914461891319937
12788726 201 18337381751708603619
13631057 29 18340204223167037659
14279260 333 18261948674316997402
14294032 229 18333167267984033588
14790565 3 18194965141382329329
14856354 85 18271532016798646694
15297060 5 18060146474111574107
15400415 2 18268147565553689337
15439362 3 17690000034424458501
16110190 28 18337667525435770298
19311894 1 17765147667899611222
20511986 3 18187072940874774848
20580484 21 17042891188659370009
21033648 144 18042681703215697389
21133410 171 17333029607710034247
21236236 1 18337955718147234294
21814621 53 17704356576822225656
21987440 362 18341058415195589278
23522609 53 17968114040143244340
23559900 14 18198616821108909841
24771293 8 18261395603073291348
4073 2 18114190704547381176
5171179 24 17840866596970776304
5265222 85 18340770339134082329
6898599 12 18409730655691720261
9896288 288 18409456903424767659
99344 41 18410292515640956086

> <PUBCHEM_SHAPE_MULTIPOLES>
695.4
18.26
6.7
1.03
29.9
0.44
-0.41
-14.17
1.81
-14.55
0.65
0.3
0.69
-2.77

> <PUBCHEM_SHAPE_SELFOVERLAP>
1538.336

> <PUBCHEM_SHAPE_VOLUME>
374.5

> <PUBCHEM_COORDINATE_TYPE>
2
5
10

$$$$
