135480579
  -OEChem-05302309443D

 29 32  0     0  0  0  0  0  0999 V2000
   -3.1452   -2.6563   -0.0008 O   0  0  0  0  0  0  0  0  0  0  0  0
    0.8809    1.1148    0.0005 N   0  0  0  0  0  0  0  0  0  0  0  0
    1.4464   -1.5684    0.0004 N   0  0  0  0  0  0  0  0  0  0  0  0
   -1.4832    0.6358    0.0004 C   0  0  0  0  0  0  0  0  0  0  0  0
   -0.1312    0.2241    0.0005 C   0  0  0  0  0  0  0  0  0  0  0  0
   -2.5205   -0.3270   -0.0001 C   0  0  0  0  0  0  0  0  0  0  0  0
    0.1736   -1.1426    0.0006 C   0  0  0  0  0  0  0  0  0  0  0  0
   -2.1898   -1.6816   -0.0001 C   0  0  0  0  0  0  0  0  0  0  0  0
   -0.8550   -2.0748    0.0004 C   0  0  0  0  0  0  0  0  0  0  0  0
    2.1553    0.6939    0.0001 C   0  0  0  0  0  0  0  0  0  0  0  0
    2.4428   -0.6716    0.0002 C   0  0  0  0  0  0  0  0  0  0  0  0
   -1.8515    1.9982    0.0005 C   0  0  0  0  0  0  0  0  0  0  0  0
   -3.8647    0.0825   -0.0004 C   0  0  0  0  0  0  0  0  0  0  0  0
   -3.1911    2.3927   -0.0001 C   0  0  0  0  0  0  0  0  0  0  0  0
   -4.1972    1.4352   -0.0005 C   0  0  0  0  0  0  0  0  0  0  0  0
    3.2050    1.6105   -0.0001 C   0  0  0  0  0  0  0  0  0  0  0  0
    3.7729   -1.0878   -0.0001 C   0  0  0  0  0  0  0  0  0  0  0  0
    4.5335    1.1897   -0.0007 C   0  0  0  0  0  0  0  0  0  0  0  0
    4.8191   -0.1672   -0.0007 C   0  0  0  0  0  0  0  0  0  0  0  0
   -0.6058   -3.1351    0.0003 H   0  0  0  0  0  0  0  0  0  0  0  0
   -1.0928    2.7788    0.0009 H   0  0  0  0  0  0  0  0  0  0  0  0
   -4.6753   -0.6432   -0.0007 H   0  0  0  0  0  0  0  0  0  0  0  0
   -3.4451    3.4487   -0.0002 H   0  0  0  0  0  0  0  0  0  0  0  0
   -5.2395    1.7396   -0.0009 H   0  0  0  0  0  0  0  0  0  0  0  0
    2.9924    2.6777   -0.0001 H   0  0  0  0  0  0  0  0  0  0  0  0
    4.0084   -2.1502    0.0000 H   0  0  0  0  0  0  0  0  0  0  0  0
    5.3374    1.9192   -0.0011 H   0  0  0  0  0  0  0  0  0  0  0  0
    5.8488   -0.5109   -0.0010 H   0  0  0  0  0  0  0  0  0  0  0  0
   -2.7166   -3.5292   -0.0007 H   0  0  0  0  0  0  0  0  0  0  0  0
  1  8  1  0  0  0  0
  1 29  1  0  0  0  0
  2  5  2  0  0  0  0
  2 10  1  0  0  0  0
  3  7  2  0  0  0  0
  3 11  1  0  0  0  0
  4  5  1  0  0  0  0
  4  6  1  0  0  0  0
  4 12  2  0  0  0  0
  5  7  1  0  0  0  0
  6  8  1  0  0  0  0
  6 13  2  0  0  0  0
  7  9  1  0  0  0  0
  8  9  2  0  0  0  0
  9 20  1  0  0  0  0
 10 11  1  0  0  0  0
 10 16  2  0  0  0  0
 11 17  2  0  0  0  0
 12 14  1  0  0  0  0
 12 21  1  0  0  0  0
 13 15  1  0  0  0  0
 13 22  1  0  0  0  0
 14 15  2  0  0  0  0
 14 23  1  0  0  0  0
 15 24  1  0  0  0  0
 16 18  1  0  0  0  0
 16 25  1  0  0  0  0
 17 19  1  0  0  0  0
 17 26  1  0  0  0  0
 18 19  2  0  0  0  0
 18 27  1  0  0  0  0
 19 28  1  0  0  0  0
M  END
> <PUBCHEM_COMPOUND_CID>
135480579

> <PUBCHEM_CONFORMER_RMSD>
0.4

> <PUBCHEM_CONFORMER_DIVERSEORDER>
1

> <PUBCHEM_MMFF94_PARTIAL_CHARGES>
27
1 -0.53
10 0.31
11 0.31
12 -0.15
13 -0.15
14 -0.15
15 -0.15
16 -0.15
17 -0.15
18 -0.15
19 -0.15
2 -0.62
20 0.15
21 0.15
22 0.15
23 0.15
24 0.15
25 0.15
26 0.15
27 0.15
28 0.15
29 0.45
3 -0.62
5 0.31
7 0.31
8 0.08
9 -0.15

> <PUBCHEM_EFFECTIVE_ROTOR_COUNT>
0

> <PUBCHEM_PHARMACOPHORE_FEATURES>
7
1 1 donor
1 2 acceptor
1 3 acceptor
6 10 11 16 17 18 19 rings
6 2 3 5 7 10 11 rings
6 4 5 6 7 8 9 rings
6 4 6 12 13 14 15 rings

> <PUBCHEM_HEAVY_ATOM_COUNT>
19

> <PUBCHEM_ATOM_DEF_STEREO_COUNT>
0

> <PUBCHEM_ATOM_UDEF_STEREO_COUNT>
0

> <PUBCHEM_BOND_DEF_STEREO_COUNT>
0

> <PUBCHEM_BOND_UDEF_STEREO_COUNT>
0

> <PUBCHEM_ISOTOPIC_ATOM_COUNT>
0

> <PUBCHEM_COMPONENT_COUNT>
1

> <PUBCHEM_CACTVS_TAUTO_COUNT>
-1

> <PUBCHEM_CONFORMER_ID>
0813450300000001

> <PUBCHEM_MMFF94_ENERGY>
65.1714

> <PUBCHEM_FEATURE_SELFOVERLAP>
35.624

> <PUBCHEM_SHAPE_FINGERPRINT>
10319926 262 18269815641516284986
10411042 1 17689998255363810667
10493431 412 18341340981431933729
10608611 8 18412824711545319184
10616163 171 18411702114294422846
10646746 165 18412263939345921852
10967382 1 18338798888297751045
11132069 177 18410290319883980880
12107183 9 17903067842333250018
12173636 292 18411133636664941591
12390115 104 18056778550058176769
12403259 226 18198619024157717456
12403259 415 18059012903872630000
12403814 3 17749105569737005645
13140716 1 18410283697455737402
13380535 76 18340768139667390255
138480 1 17329992391684770703
14790565 3 18196943175675876073
14866123 147 16760582782075843546
15042514 8 18337115687058498987
15196674 1 18410856590184641030
15442244 35 18337105658119666386
15536298 74 18341895169366675622
16945 1 18338798914458126823
17492 89 18410012160907742762
18186145 218 18200320905091227476
19591789 44 17905046950167373686
200 152 17704349978708064349
20510252 161 18341897441082778075
20645477 56 18409452461948392357
20645477 70 16988289664413347694
21267235 1 18409738377800104146
21501502 16 18409163329197895746
2306618 200 18201729474197047411
23227448 37 18411698785768387877
23402539 116 18342449331601069605
23557571 272 18271254922672974182
23559900 14 18271806762337382246
245318 6 16593386036135811028
2748010 2 17980189013955887065
3004659 81 18190188897975288438
335352 9 18266458707414214334
350125 39 18338803423936475849
3545911 37 18412265025830294316
4028521 119 18334287648303531789
4214541 1 18410856555540234948
474 4 17386575785807158372
495365 180 17346020235070817232
5104073 3 18410291436923534338
633830 44 17913489030826999709
69090 78 18411979139637145717
7097593 13 17898270724578093570
7364860 26 18196372516097525870
77779 3 18410576201808250044
9709674 26 18342743991963952614

> <PUBCHEM_SHAPE_MULTIPOLES>
375.18
8.75
2.51
0.6
4.71
0.39
0
-2.41
0
-1.89
0
0.01
-0.02
0

> <PUBCHEM_SHAPE_SELFOVERLAP>
868.858

> <PUBCHEM_SHAPE_VOLUME>
191.7

> <PUBCHEM_COORDINATE_TYPE>
2
5
10

$$$$
