2836600
  -OEChem-05302309433D

 37 40  0     0  0  0  0  0  0999 V2000
   -2.7749    2.2579    1.7839 O   0  0  0  0  0  0  0  0  0  0  0  0
   -5.5004   -1.2085   -1.6230 O   0  5  0  0  0  0  0  0  0  0  0  0
   -5.8486    0.4871   -0.2731 O   0  0  0  0  0  0  0  0  0  0  0  0
    0.5735   -0.1752    0.3911 N   0  0  0  0  0  0  0  0  0  0  0  0
   -1.5292    1.6992    1.5546 N   0  0  0  0  0  0  0  0  0  0  0  0
   -3.7680    1.6170    1.0632 N   0  0  0  0  0  0  0  0  0  0  0  0
   -5.0730   -0.3415   -0.8171 N   0  3  0  0  0  0  0  0  0  0  0  0
    1.5620   -1.1864    0.4157 C   0  0  0  0  0  0  0  0  0  0  0  0
    2.8924   -0.9045    0.1062 C   0  0  0  0  0  0  0  0  0  0  0  0
   -0.8014   -0.1916    0.1186 C   0  0  0  0  0  0  0  0  0  0  0  0
   -1.7298    0.7006    0.6856 C   0  0  0  0  0  0  0  0  0  0  0  0
    3.3147    0.4359   -0.2526 C   0  0  0  0  0  0  0  0  0  0  0  0
   -3.1529    0.6484    0.3734 C   0  0  0  0  0  0  0  0  0  0  0  0
   -1.3631   -1.1287   -0.7675 C   0  0  0  0  0  0  0  0  0  0  0  0
    1.1848   -2.4853    0.7564 C   0  0  0  0  0  0  0  0  0  0  0  0
   -3.6939   -0.2978   -0.5163 C   0  0  0  0  0  0  0  0  0  0  0  0
    3.8461   -1.9219    0.1375 C   0  0  0  0  0  0  0  0  0  0  0  0
   -2.7489   -1.1795   -1.0717 C   0  0  0  0  0  0  0  0  0  0  0  0
    2.1386   -3.5026    0.7878 C   0  0  0  0  0  0  0  0  0  0  0  0
    3.4691   -3.2210    0.4783 C   0  0  0  0  0  0  0  0  0  0  0  0
    3.2967    0.8351   -1.5873 C   0  0  0  0  0  0  0  0  0  0  0  0
    3.7362    1.3196    0.7385 C   0  0  0  0  0  0  0  0  0  0  0  0
    3.7026    2.1241   -1.9326 C   0  0  0  0  0  0  0  0  0  0  0  0
    4.1420    2.6087    0.3931 C   0  0  0  0  0  0  0  0  0  0  0  0
    4.1252    3.0109   -0.9425 C   0  0  0  0  0  0  0  0  0  0  0  0
    0.8732    0.6677    0.8746 H   0  0  0  0  0  0  0  0  0  0  0  0
   -0.7221   -1.8489   -1.2751 H   0  0  0  0  0  0  0  0  0  0  0  0
    0.1612   -2.7314    1.0247 H   0  0  0  0  0  0  0  0  0  0  0  0
    4.8883   -1.7217   -0.1006 H   0  0  0  0  0  0  0  0  0  0  0  0
   -3.0694   -1.9460   -1.7771 H   0  0  0  0  0  0  0  0  0  0  0  0
    1.8465   -4.5131    1.0582 H   0  0  0  0  0  0  0  0  0  0  0  0
    4.2118   -4.0130    0.5039 H   0  0  0  0  0  0  0  0  0  0  0  0
    2.9692    0.1562   -2.3711 H   0  0  0  0  0  0  0  0  0  0  0  0
    3.7545    1.0219    1.7842 H   0  0  0  0  0  0  0  0  0  0  0  0
    3.6891    2.4376   -2.9724 H   0  0  0  0  0  0  0  0  0  0  0  0
    4.4708    3.2995    1.1640 H   0  0  0  0  0  0  0  0  0  0  0  0
    4.4409    4.0146   -1.2113 H   0  0  0  0  0  0  0  0  0  0  0  0
  1  5  1  0  0  0  0
  1  6  1  0  0  0  0
  2  7  1  0  0  0  0
  3  7  2  0  0  0  0
  4  8  1  0  0  0  0
  4 10  1  0  0  0  0
  4 26  1  0  0  0  0
  5 11  2  0  0  0  0
  6 13  2  0  0  0  0
  7 16  1  0  0  0  0
  8  9  1  0  0  0  0
  8 15  2  0  0  0  0
  9 12  1  0  0  0  0
  9 17  2  0  0  0  0
 10 11  1  0  0  0  0
 10 14  2  0  0  0  0
 11 13  1  0  0  0  0
 12 21  2  0  0  0  0
 12 22  1  0  0  0  0
 13 16  1  0  0  0  0
 14 18  1  0  0  0  0
 14 27  1  0  0  0  0
 15 19  1  0  0  0  0
 15 28  1  0  0  0  0
 16 18  2  0  0  0  0
 17 20  1  0  0  0  0
 17 29  1  0  0  0  0
 18 30  1  0  0  0  0
 19 20  2  0  0  0  0
 19 31  1  0  0  0  0
 20 32  1  0  0  0  0
 21 23  1  0  0  0  0
 21 33  1  0  0  0  0
 22 24  2  0  0  0  0
 22 34  1  0  0  0  0
 23 25  2  0  0  0  0
 23 35  1  0  0  0  0
 24 25  1  0  0  0  0
 24 36  1  0  0  0  0
 25 37  1  0  0  0  0
M  CHG  2   2  -1   7   1
M  END
> <PUBCHEM_COMPOUND_CID>
2836600

> <PUBCHEM_CONFORMER_RMSD>
0.8

> <PUBCHEM_CONFORMER_DIVERSEORDER>
1
10
7
12
9
11
4
6
15
5
2
3
8
16
14
13

> <PUBCHEM_MMFF94_PARTIAL_CHARGES>
35
1 0.24
10 0.1
11 0.29
13 0.29
14 -0.15
15 -0.15
16 0.13
17 -0.15
18 -0.15
19 -0.15
2 -0.52
20 -0.15
21 -0.15
22 -0.15
23 -0.15
24 -0.15
25 -0.15
26 0.4
27 0.15
28 0.15
29 0.15
3 -0.52
30 0.15
31 0.15
32 0.15
33 0.15
34 0.15
35 0.15
36 0.15
37 0.15
4 -0.6
5 -0.41
6 -0.41
7 0.91
8 0.1

> <PUBCHEM_EFFECTIVE_ROTOR_COUNT>
4

> <PUBCHEM_PHARMACOPHORE_FEATURES>
11
1 2 acceptor
1 2 anion
1 3 acceptor
1 4 cation
1 4 donor
1 5 acceptor
1 6 acceptor
5 1 5 6 11 13 rings
6 10 11 13 14 16 18 rings
6 12 21 22 23 24 25 rings
6 8 9 15 17 19 20 rings

> <PUBCHEM_HEAVY_ATOM_COUNT>
25

> <PUBCHEM_ATOM_DEF_STEREO_COUNT>
0

> <PUBCHEM_ATOM_UDEF_STEREO_COUNT>
0

> <PUBCHEM_BOND_DEF_STEREO_COUNT>
0

> <PUBCHEM_BOND_UDEF_STEREO_COUNT>
0

> <PUBCHEM_ISOTOPIC_ATOM_COUNT>
0

> <PUBCHEM_COMPONENT_COUNT>
1

> <PUBCHEM_CACTVS_TAUTO_COUNT>
2

> <PUBCHEM_CONFORMER_ID>
002B487800000001

> <PUBCHEM_MMFF94_ENERGY>
97.7497

> <PUBCHEM_FEATURE_SELFOVERLAP>
56.083

> <PUBCHEM_SHAPE_FINGERPRINT>
10366900 7 16951132742241047194
10498660 4 18197222649044209080
10554248 39 18128243503565990581
11049842 53 16914272662807390471
11582403 64 16556192783582921424
12107183 9 17550388436609903467
12236239 1 18342453699371890695
12616971 3 18269562650198288801
12788726 201 17775007882075877073
13009979 54 17914897526501793074
13533116 47 18408887308966917999
13583140 156 17754190682472406089
13590594 115 18046349626649807024
13617811 41 18267287894133228201
13726171 33 17346332521631791673
14739800 52 17988347261401031488
15342168 16 18041282187541371444
15842332 3 18127986221206374745
1813 80 17977670814612210694
18681886 176 18201994388086462354
19319366 153 18339347673544885407
20642791 105 17757266360060906858
21033648 29 16877659041745602957
2132832 1 18195793099038544680
21709351 56 18264488386444964934
22149856 69 18335434503999669707
2255824 54 18335707096667565306
23522609 53 18130525089010002321
23559900 14 18336257968550575354
24771293 8 18340767032578859842
25147074 1 18200601293630980329
3004659 81 18341605976065260991
312423 11 18271250421673913323
469060 322 17755884234905179867
474 4 18261114101597756184
5312544 6 18411418410150414743
5895379 119 17488193586764670728
6034566 193 17462586201034424628
67856867 119 18412536592180199442
70251023 43 18043245739014680755
7097593 13 18051132484476289802
7615 1 18270962332310124560
84936 182 18341898519684071792
9981440 41 18121213440681512410

> <PUBCHEM_SHAPE_MULTIPOLES>
476.96
11.21
3.64
1.43
11.59
1.37
-0.18
-3.8
-2.95
-5.65
0.63
0.45
-0.72
-2.61

> <PUBCHEM_SHAPE_SELFOVERLAP>
1062.377

> <PUBCHEM_SHAPE_VOLUME>
253.8

> <PUBCHEM_COORDINATE_TYPE>
2
5
10

$$$$
